data/ieee_13_aw_edit/IEEE13Nodeckt_VLN_Node.Txt

LINE-GROUND and LINE-LINE VOLTAGES BY BUS & NODE

Bus  Node    VLN (kV)   Angle      pu     Base kV    Node-Node   VLL (kV)  Angle      pu

RG60 1       2.4735 /_   30.0    1.0299     4.160        1-2     4.2843 /_   60.0    1.0299
   - 2       2.4736 /_  -90.0    1.0299     4.160        2-3     4.2844 /_  -60.0    1.0299
   - 3       2.4735 /_  150.0    1.0299     4.160        3-1     4.2842 /_  180.0    1.0299
671  1       2.3591 /_   26.6   0.98223     4.160        1-2     4.1168 /_   58.1    0.9896
   - 2       2.4404 /_  -91.5    1.0161     4.160        2-3      4.136 /_  -63.0   0.99423
   - 3       2.3069 /_  147.3   0.96051     4.160        3-1     4.0552 /_  177.3    0.9748
634  1       2.3631 /_   26.5   0.98391     4.160        1-2     4.1249 /_   58.1   0.99157
   - 2       2.4464 /_  -91.6    1.0186     4.160        2-3     4.1449 /_  -63.0   0.99637
   - 3       2.3126 /_  147.3   0.96287     4.160        3-1     4.0653 /_  177.3   0.97723
645  1       2.3879 /_   27.1   0.99421     4.160        1-2      4.158 /_   58.3   0.99953
   - 2       2.4495 /_  -91.4    1.0199     4.160        2-3     4.1737 /_  -62.7    1.0033
   - 3       2.3427 /_  147.5   0.97541     4.160        3-1     4.1041 /_  177.6   0.98656
646  1       2.3793 /_   27.0   0.99065     4.160        1-2      4.142 /_   58.2   0.99566
   - 2        2.443 /_  -91.4    1.0171     4.160        2-3     4.1571 /_  -62.8    0.9993
   - 3        2.327 /_  147.3   0.96887     4.160        3-1     4.0833 /_  177.5   0.98156
692  1       2.3591 /_   26.6   0.98223     4.160        1-2     4.1168 /_   58.1    0.9896
   - 2       2.4404 /_  -91.5    1.0161     4.160        2-3      4.136 /_  -63.0   0.99423
   - 3       2.3069 /_  147.3   0.96051     4.160        3-1     4.0552 /_  177.3    0.9748
675  1       2.3631 /_   26.5   0.98391     4.160        1-2     4.1249 /_   58.1   0.99157
   - 2       2.4464 /_  -91.6    1.0186     4.160        2-3     4.1449 /_  -63.0   0.99637
   - 3       2.3126 /_  147.3   0.96287     4.160        3-1     4.0653 /_  177.3   0.97723
611  1       2.3793 /_   27.0   0.99065     4.160        1-2      4.142 /_   58.2   0.99566
   - 2        2.443 /_  -91.4    1.0171     4.160        2-3     4.1571 /_  -62.8    0.9993
   - 3        2.327 /_  147.3   0.96887     4.160        3-1     4.0833 /_  177.5   0.98156
652  1       2.3546 /_   26.6   0.98034     4.160        1-2     4.1179 /_   58.2   0.98987
   - 2       2.4458 /_  -91.5    1.0183     4.160        2-3      4.145 /_  -62.9   0.99639
   - 3        2.316 /_  147.5   0.96428     4.160        3-1     4.0623 /_  177.3   0.97652
670  1       2.3896 /_   27.1   0.99494     4.160        1-2      4.157 /_   58.3   0.99928
   - 2       2.4465 /_  -91.4    1.0186     4.160        2-3     4.1698 /_  -62.7    1.0024
   - 3       2.3382 /_  147.4   0.97353     4.160        3-1      4.099 /_  177.6   0.98533
632  1       2.3879 /_   27.1   0.99421     4.160        1-2      4.158 /_   58.3   0.99953
   - 2       2.4495 /_  -91.4    1.0199     4.160        2-3     4.1737 /_  -62.7    1.0033
   - 3       2.3427 /_  147.5   0.97541     4.160        3-1     4.1041 /_  177.6   0.98656
680  1       2.3591 /_   26.6   0.98223     4.160        1-2     4.1168 /_   58.1    0.9896
   - 2       2.4404 /_  -91.5    1.0161     4.160        2-3      4.136 /_  -63.0   0.99423
   - 3       2.3069 /_  147.3   0.96051     4.160        3-1     4.0552 /_  177.3    0.9748
633  1       2.3879 /_   27.1   0.99421     4.160        1-2      4.158 /_   58.3   0.99953
   - 2       2.4495 /_  -91.4    1.0199     4.160        2-3     4.1737 /_  -62.7    1.0033
   - 3       2.3427 /_  147.5   0.97541     4.160        3-1     4.1041 /_  177.6   0.98656
684  1       2.3673 /_   26.7   0.98564     4.160        1-2     4.1272 /_   58.2    0.9921
   - 2       2.4418 /_  -91.5    1.0166     4.160        2-3     4.1456 /_  -62.9   0.99655
   - 3       2.3167 /_  147.3   0.96459     4.160        3-1     4.0688 /_  177.4   0.97807
